::

    >>> text_indentation(7)
    Traceback (most recent call last):
    TypeError: text must be a string

::

    >>> text_indentation({"one": 1, "two": 2})
    Traceback (most recent call last):
    TypeError: text must be a string

::

    >>> text_indentation(None)
    Traceback (most recent call last):
    TypeError: text must be a string



    >>> text_indentation = __import__('5-text_indentation').text_indentation
    >>> text_indentation("Hello?")
    Hello?
    <BLANKLINE>

No spaces are printed at the beginning of a line.

::

    >>> text_indentation("   Hi there.")
    Hi there.
    <BLANKLINE>

::

    >>> text_indentation("Let's print a new-line! Here goes:\nPrinted.")
    Let's print a new-line! Here goes:
    <BLANKLINE>
    <BLANKLINE>
    Printed.
    <BLANKLINE>

::

    >>> text_indentation("\n\n\n We just printed three new lines.")
    <BLANKLINE>
    <BLANKLINE>
    <BLANKLINE>
    We just printed three new lines.
    <BLANKLINE>

::
    >>> text_indentation("A sneaky \n new line.")
    A sneaky 
    new line.
    <BLANKLINE>
